data_image0
_chemical_formula_structural       Li4Ni6Sn2O16Na6
_chemical_formula_sum              "Li4 Ni6 Sn2 O16 Na6"
_cell_length_a       5.89539
_cell_length_b       6.06309
_cell_length_c       8.24704
_cell_angle_alpha    87.7949
_cell_angle_beta     90.4754
_cell_angle_gamma    87.6326

_space_group_name_H-M_alt    "P 1"
_space_group_IT_number       1

loop_
  _space_group_symop_operation_xyz
  'x, y, z'

loop_
  _atom_site_type_symbol
  _atom_site_label
  _atom_site_symmetry_multiplicity
  _atom_site_fract_x
  _atom_site_fract_y
  _atom_site_fract_z
  _atom_site_occupancy
  Li  Li1       1.0  0.00659  0.24233  0.11311  1.0000
  Li  Li2       1.0  0.50313  0.74179  0.61916  1.0000
  Li  Li3       1.0  0.99687  0.75819  0.88081  1.0000
  Li  Li4       1.0  0.49343  0.25766  0.38690  1.0000
  Ni  Ni1       1.0  0.75000  0.25000  0.75007  1.0000
  Ni  Ni2       1.0  0.75005  0.74999  0.25002  1.0000
  Ni  Ni3       1.0  0.25000  0.25001  0.74998  1.0000
  Ni  Ni4       1.0  0.00632  0.50361  0.50251  1.0000
  Ni  Ni5       1.0  0.49367  0.99639  0.99748  1.0000
  Ni  Ni6       1.0  0.24997  0.75001  0.24996  1.0000
  Sn  Sn1       1.0  0.00416  0.00130  0.49923  1.0000
  Sn  Sn2       1.0  0.49583  0.49871  0.00076  1.0000
  O   O1        1.0  0.01034  0.54466  0.26669  1.0000
  O   O2        1.0  0.48828  0.02751  0.76631  1.0000
  O   O3        1.0  0.01173  0.47249  0.73369  1.0000
  O   O4        1.0  0.48970  0.95530  0.23330  1.0000
  O   O5        1.0  0.24693  0.75008  0.47781  1.0000
  O   O6        1.0  0.73799  0.24769  0.98043  1.0000
  O   O7        1.0  0.77921  0.74288  0.48845  1.0000
  O   O8        1.0  0.27095  0.23828  0.97862  1.0000
  O   O9        1.0  0.01633  0.97593  0.25025  1.0000
  O   O10       1.0  0.48101  0.46112  0.74920  1.0000
  O   O11       1.0  0.01901  0.03888  0.75082  1.0000
  O   O12       1.0  0.48364  0.52409  0.24975  1.0000
  O   O13       1.0  0.22904  0.26175  0.52132  1.0000
  O   O14       1.0  0.72080  0.75711  0.01157  1.0000
  O   O15       1.0  0.76197  0.25231  0.51968  1.0000
  O   O16       1.0  0.25303  0.74994  0.02213  1.0000
  Na  Na1       1.0  0.50500  0.50294  0.49929  1.0000
  Na  Na2       1.0  0.74998  0.75003  0.75000  1.0000
  Na  Na3       1.0  0.50522  0.50299  0.49925  1.0000
  Na  Na4       1.0  0.74988  0.74895  0.75012  1.0000
  Na  Na5       1.0  0.50522  0.50299  0.49925  1.0000
  Na  Na6       1.0  0.25002  0.25000  0.24999  1.0000
